pandapower/test/converter/testfiles/test_ucte3.uct
##C 2007.05.01
UCTE Export
test_ucte-Berechnungsfall

----- NODE BLOCK -----
_________1_________2_________3_________4_________5_________6_________7_________8_________9________10________11________12________13
1234567890123456789012345678901234567890123456789012345678901234567890123456789012345678901234567890123456789012345678901234567890
Node    |Node Name   |S|T|Volt  |PLoad  |QLoad  |PGen   |QGen   |Pmin   |Pmax   |Qmin   |Qmax   |Sta  |Pprim  |Sks__  |X/R    |T|

##N
##ZDE
DEHV1_1E EHV1_DE      0 3 380.00       0       0 -114539 -485934 9999.00 -9999.0 1827.25 -1827.3 
DEHV2_1E EHV2_DE      0 0        1140000 500000.       0       0 
DHV1_D5  HV1_DE       0 0              0       0       0       0 
##ZDK
KBUS1_5K Bus1_DK      0 3 111.10       0       0 -1201.7 19341.5 9999.00 -9999.0 1827.25 -1827.3 
KBUS2_5K Bus2_DK      0 0        1200.00 1100.00       0       0 
##ZIT
IBUS1_1T Bus1_IT      0 3 383.80       0       0 -700.02 5010.44 9999.00 -9999.0 1827.25 -1827.3 
IBUS2_1T Bus2_IT      0 0        1200.00 1100.00 -500.00 100.000       0 -9999.0 1.00000 -1.0000 
##ZLU
1BUS1_1_ Bus1_1_LU    0 3 383.80       0       0 -700.33 11122.4 9999.00 -9999.0 1827.25 -1827.3 
1BUS1_1U Bus1_LU      0 3 383.80       0       0 -1244.5 -229828 9999.00 -9999.0 1827.25 -1827.3 
1BUS2_1_ Bus2_1_LU    0 0              0       0       0       0 
1BUS2_10 Bus2_2_LU    0 0        1200.00 1100.00 -500.00 200.000       0 -9999.0 1.00000 -1.0000 
1BUS2_11 Bus2_3_LU    0 0              0       0       0       0 
1BUS2_1U Bus2_LU      0 2 380.00 1200.00 1100.00 -500.00 238692.       0 -9999.0 1.00000 -1.0000 
##ZRS
JBUS1_1S Bus1_RS      0 3 383.80       0       0 -368.19 5950.42 9999.00 -9999.0 1827.25 -1827.3 
JBUS2_1S Bus2_RS      0 0              0       0       0       0 
JBUS3_5S Bus3_RS      0 0        200.000 50.0000       0       0 
##C

----- LINE BLOCK -----
_________1_________2_________3_________4_________5_________6_________7
1234567890123456789012345678901234567890123456789012345678901234567890
Node 1  |Node 2  |O|S|R(Ohm)|X(Ohm)|B(uS)   |I(A)  |Element Name|

##L
DEHV1_1E DEHV2_1E 1 0 0.7375 3.1625 172.7876   1920 Line1_DE    
DEHV1_1E DEHV2_1E 2 0 1.4750 6.3250 86.39380    960 Line2_DE    
KBUS2_5K KBUS1_5K 1 0 0.3660 0.8784 1103.830    941 line1_DK    
KBUS2_5K KBUS1_5K 2 8 0.7320 1.7568 551.9150    470 line2_DK    
KBUS2_5K KBUS1_5K 3 8 0.7320 1.7568 551.9150    470 line3_DK    
IBUS1_1T IBUS2_1T 1 0 0.7198 3.0866 42.16017    768 line1_IT    
1BUS1_1_ 1BUS2_11 1 0 0.7198 3.0866 42.16017    768 line3_LU    
1BUS1_1U 1BUS2_1_ 1 0 0.7198 3.0866 42.16017    768 line1_LU    
1BUS2_1_ 1BUS2_1U 1 0 0.7198 3.0866 42.16017    768 line2_LU    
1BUS2_11 1BUS2_10 1 0 0.7198 3.0866 42.16017    768 line4_LU    
JBUS1_1S JBUS2_1S 1 0 0.7198 3.0866 42.16017    768 line1_RS    
##C

----- 2 WINDING TRANSFORMER BLOCK -----
_________1_________2_________3_________4_________5_________6_________7_________8_________9
123456789012345678901234567890123456789012345678901234567890123456789012345678901234567890
Node 1  |Node 2  |O|S|U1   |U2   |Sn   |R(Ohm)|X(Ohm)|B(uS)   |G(uS) |I(A)  |Element Name|

##T
DHV1_D5  DEHV1_1E 1 0 110.0 380.0 160.0 0.1891 9.2243 -6.19339 4.9587    840 trafo1_DE   
JBUS3_5S JBUS2_1S 1 0 110.0 380.0 320.0 0.0945 4.6122 -12.3868 9.9174   1680 trafo1_RS   
JBUS3_5S JBUS2_1S 2 8 110.0 380.0 160.0 0.1891 9.2243 -6.19339 4.9587    840 trafo2_RS   
JBUS3_5S JBUS2_1S 3 8 110.0 380.0 160.0 0.1891 9.2243 -6.19339 4.9587    840 trafo3_RS   
##C

----- 2 WINDINGS TRANSFORMERS REGULATION BLOCK -----
_________1_________2_________3_________4_________5_________6_________7
1234567890123456789012345678901234567890123456789012345678901234567890
Node 1  |Node 2  |O|du   |mx|Tap|U    |du   |phitr|mx|Tap|P    |Type|

##R
DHV1_D5  DEHV1_1E 1 1.500  9   0      
JBUS3_5S JBUS2_1S 1 1.500  9   3      
JBUS3_5S JBUS2_1S 2 1.500  9   3      
JBUS3_5S JBUS2_1S 3 1.500  9   0      
##C

----- 2 WINDINGS TRANSFORMERS DEPENDING ON THE TAP POSITION BLOCK -----
_________1_________2_________3_________4_________5_________6
123456789012345678901234567890123456789012345678901234567890
Node 1  |Node 2  |O| |Tap|R(Ohm)|X(Ohm)|du   |phi  |

##TT
